25
s                      x[A]                      y[A]                      z[A]                      q[e]
N 1.8749798916208247 1.2956110746200373 0.4279590808048938 0.1158659338886357
O 1.8130916177685870 -0.1890744742242601 -0.4027847591614109 -0.2341991647481463
N 3.3013585148520499 -0.5856619209825714 0.0299947776142416 0.0569852111266852
N 2.1005574966347047 -0.4976760368377062 0.0295284905710467 0.3189271149812888
O 1.8227645978913278 -0.4125422110015907 0.3476693943066649 -0.2877498234141676
N 1.3386377119520363 -0.8805103569939752 -0.0422955926088225 0.5692545008206258
O 0.8236845159381384 -0.4762082714495036 -0.6251178819445677 -0.2058946535748549
O 1.1281672107826022 -0.6705766475976258 0.0221832542049147 -0.9992971180892700
N 0.6784292433164585 -0.3733260350980007 -0.1364463287788455 0.6691943173322236
N 0.8382125056693392 -2.0959116900956918 -0.4627358624839950 0.0628076875181509
N -0.6126605112891046 1.6243753295242123 -0.0466860823850209 0.7576134719858190
O -0.5869328769917254 1.2705599630628002 -0.1251095895428474 -0.9235083265987739
N -0.6459102710114079 0.8514447230066275 -0.0514621671999516 0.9955526175656415
O -0.6150791737491875 1.4245996617781989 0.0026351746187897 -0.9936641819349231
O -0.4587086389198536 -0.2009638864755821 0.0736975085202962 -0.9934394819660318
N -0.5018963675187680 0.2143318028562273 -0.1041136167193787 0.8475065253219278
N -0.4265746819321684 -0.4830813902844480 -0.0178136949063006 0.9207393412409772
O -0.6898112952575393 -0.3185555601153412 -0.2753337193605665 -0.6738758902636315
N -2.8347800593835806 -0.1414295077211680 0.1609729386794706 0.1207489421105395
N -1.1270533378628640 -0.7440972132349618 -0.0387321757115597 0.4308753055723465
O -1.3712847499640826 -0.4797445374417849 0.2660214256846053 -0.7095764258838037
N -1.5420682516474922 -0.2866156797102035 0.0716770296132898 0.9977500474782615
O -1.5042584031951685 -0.4833081274128797 -0.0609013724161752 -0.9963537733476465
O -1.6893666410537180 -1.9401161687681965 0.4937912190560152 -0.1586318904925156
N -1.7019243201063885 -1.8991031303079080 0.3241264721161409 0.3123697133706422
