25
s                      x[A]                      y[A]                      z[A]                      q[e]
N 0.0679253344843634 -0.0033767163148277 0.2407998646906478 0.1158659338886357
O -0.1666761852599279 0.4420496335793874 0.2996265160407247 -0.2341991647481463
N -0.0810983957737341 -0.0064137571701671 -0.3913985232547639 0.0569852111266852
N -0.5187006161346969 -0.0324541693295517 0.1499197328327122 0.3189271149812888
O -0.2319854353154994 -0.3403075145296976 0.2644359692174801 -0.2877498234141676
N 0.0277595842835195 0.1180679521662847 -0.5553794107119699 0.5692545008206258
O -0.1566451233306494 -0.4968878739840583 0.0445203863310343 -0.2058946535748549
O -0.0621488046207567 0.1628788176633276 -0.2686228391958158 -0.9992971180892700
N -0.1900825568126984 -0.0160993671753256 0.2401951472149751 0.6691943173322236
N 0.0181941322624193 -0.0214727259320490 0.3856185785118618 0.0628076875181509
N 0.0580222601319155 0.0046505041930254 0.2900795060259319 0.7576134719858190
O 0.0359109199524649 -0.0749191677286848 -0.0562182873684134 -0.9235083265987739
N 0.1053954407310203 -0.0098859689077854 -0.4800611941875257 0.9955526175656415
O 0.0690101712882439 0.0512778805965914 0.0965052290706795 -0.9936641819349231
O -0.0416846205663927 0.1152484425297242 -0.1260986768041691 -0.9934394819660318
N -0.0287295746155411 -0.0524552967329682 0.2956219780125323 0.8475065253219278
N -0.0801136712618786 0.0197323915266939 -0.3999430953568263 0.9207393412409772
O 0.1557264704464262 -0.2546862912493410 -0.2283949513009069 -0.6738758902636315
N -0.0656859966122549 0.0234534275373431 0.2204104428001201 0.1207489421105395
N 0.2635772822480529 0.0765508395933417 -0.4871887343787334 0.4308753055723465
O 0.3492937174133318 -0.2118784035079531 -0.1281162284627423 -0.7095764258838037
N 0.4486368327893039 -0.0065729592629284 0.1031974460018261 0.9977500474782615
O 0.3056113282594413 0.1239535368016366 -0.0379966156156964 -0.9963537733476465
O -0.0311956871248467 -0.3704906236771461 -0.1418298017225002 -0.1586318904925156
N -0.0343763939906663 -0.2006353837567552 -0.0902934138544986 0.3123697133706422
