25
s                      x[A]                      y[A]                      z[A]                      q[e]
N 1.8625911591002788 1.1746756052595586 -0.9155121017965412 0.1158659338886357
O 1.7099751437178212 -0.4039029939273505 -0.4530823436485334 -0.2341991647481463
N 3.3620002039512444 -0.4696887796702055 0.0093795409593944 0.0569852111266852
N 2.1185244142337387 -0.2998285687363526 -0.0214497541781503 0.3189271149812888
O 1.8942549339843842 -0.0666448727067484 0.2894871131432713 -0.2877498234141676
N 1.2579610689494625 -0.7201829880793278 0.1898714904559018 0.5692545008206258
O 0.6661578204901580 -0.7015506542746964 0.5281813892170831 -0.2058946535748549
O 1.0322705785080595 -0.5681043299342351 0.0068469239451778 -0.9992971180892700
N 0.5390335425813765 -0.5245328944166837 0.0911204263657169 0.6691943173322236
N 0.8880063185491599 -1.7545842248198427 1.1024005129521792 0.0628076875181509
N -1.2808426852721808 -1.0229664706268133 -0.1951445467651063 0.7576134719858190
O -1.1518195583029129 -0.8841513074637338 -0.1398386315393077 -0.9235083265987739
N -0.9081646165124935 -0.5595418280888462 -0.0975856229621956 0.9955526175656415
O -1.2284935634852940 -0.9232635651200098 -0.2027170717958144 -0.9936641819349231
O -0.3121376211322022 0.0286814865035474 -0.0347994459706507 -0.9934394819660318
N -0.5485221638838401 -0.2223336005135632 -0.0350070837890309 0.8475065253219278
N -0.1622154613347580 0.1542491288027917 0.0773579772975370 0.9207393412409772
O -0.4428404544595541 0.2081947014909108 0.1798071600322343 -0.6738758902636315
N -2.1795060146424952 1.6160660977418604 -0.0974425664760764 0.1207489421105395
N -0.4849244798539779 0.8343423699832958 0.1995119832516889 0.4308753055723465
O -0.7616199086381606 0.8611625474272363 -0.0444179643137333 -0.7095764258838037
N -0.9897370390410469 0.7579382886458924 0.0309030416455612 0.9977500474782615
O -0.8406411672564956 0.8741922235934061 0.1608822320247140 -0.9963537733476465
O -0.2382712442589714 2.1410449963623961 0.1336283133337017 -0.1586318904925156
N -0.2034604686293847 2.1721013743427005 0.2201533225928857 0.3123697133706422
