25
s                      x[A]                      y[A]                      z[A]                      q[e]
N -1.9817375026843436 1.3780966641333472 0.0430265688629106 0.1158659338886357
O -1.7823480415287341 -0.1995546391128890 0.4843360476787795 -0.2341991647481463
N -3.3425994622515591 -0.6251506142073384 0.0433436336313740 0.0569852111266852
N -2.1027217533903970 -0.3667520433188742 0.0519425949048270 0.3189271149812888
O -1.8785653948821368 -0.2740765364238660 -0.3378930393732141 -0.2877498234141676
N -1.1927486736559023 -0.8379713893003405 0.1306030988556756 0.5692545008206258
O -0.6852468546763526 -0.7438226212506719 -0.3173026968571538 -0.2058946535748549
O -0.9555773510073190 -0.6483390744166153 0.2510433633753232 -0.9992971180892700
N -0.4863353068753948 -0.5812839110510952 0.1112173882381620 0.6691943173322236
N -0.7733142863817213 -2.0929846826715659 -0.0884335876336517 0.0628076875181509
N 1.3409077071063393 -0.9442850620748372 0.0404175802529684 0.7576134719858190
O 1.2017265659074627 -0.8172401152410527 0.0185499863969317 -0.9235083265987739
N 0.9361073000054356 -0.5038617595606248 0.0320888181127465 0.9955526175656415
O 1.2861242477967259 -0.8512746434366859 0.0606568355452238 -0.9936641819349231
O 0.3216064573002122 0.0181146588832517 0.1007738127636116 -0.9934394819660318
N 0.5617891124482357 -0.2030424741877346 0.0407264829833716 0.8475065253219278
N 0.1515720831752150 0.1505342951428483 0.0496327079101539 0.9207393412409772
O 0.4023544149814489 0.2190050587461303 -0.1044035537464411 -0.6738758902636315
N 2.1149299636246890 1.6874492715384928 -0.0225606645327537 0.1207489421105395
N 0.4153401021410897 0.8501130281782214 -0.0642268054974648 0.4308753055723465
O 0.7301014287617176 0.8639336974988906 0.1125093382897399 -0.7095764258838037
N 0.9356563483671434 0.7776363556027627 -0.0095451253897408 0.9977500474782615
O 0.7620711541152355 0.8954516421364935 -0.0925729821562763 -0.9963537733476465
O 0.1643229410642598 2.1292938045884573 0.1838792696447653 -0.1586318904925156
N 0.0888648233009056 2.1556307530392327 0.0941812697590308 0.3123697133706422
