24
s                      x[A]                      y[A]                      z[A]                      q[e]
N 2.1619695134196641 -0.4049084697574377 -0.2035164229109404 0.4396498698493788
O 2.0987908804249460 -0.3187090711898975 -0.4150021850949273 -0.2419484626586362
O 2.3499356536986000 0.6863065143089354 0.9162440313885198 -0.8216640823832928
N 2.3280028532006529 0.5597603953904371 0.7945850512946340 0.6911058725627753
N 1.9785084843308625 0.6209174484175520 -0.8092103984151985 0.3472770842538423
O 1.7324998119502195 -0.2680498542224868 -0.2503937158507460 -0.4972452564803699
N 0.5411392755180401 -1.9280973146848075 -0.0383607705803411 0.0348746148872408
N 1.6314607627484250 -0.4750521311386587 -0.2092052911030826 0.4472873175241169
N 0.0774001277091178 0.2727077957780133 0.0434388556188607 0.4040279392599954
O -0.1288453159754684 1.4183147487068715 -0.0809237995592049 -0.7648914381352150
O -0.6506178845933848 1.3123870101014485 -0.0370780240932789 -0.5803786163151374
N -0.2823672763092637 1.5996294796709725 -0.1111102545028759 0.6104678734781928
N -1.3908490450558664 -0.2609254882560852 -0.0630009200401519 0.4283178126312049
O -0.6557756687517111 0.4411868853995811 0.2497525614170580 -0.5166732318812240
O -0.4193166931232978 -0.0323014044609677 -0.0373581792239970 -0.9898710280040961
N 0.1858304778455920 -0.5875700993588650 -0.0182630816377839 0.5250946986775089
N 0.5127944910171210 -1.7385672285898801 -0.0479222162875099 0.2762007947019022
N -1.9554509483035902 -0.4656999216869920 -0.6910386905884651 0.6761625577758107
N -1.9088124597910665 -0.3766852123744100 -0.4870366464804906 0.4633336859053099
O -2.1951671637068229 -0.4297226398507653 -0.9324580741380680 -0.9923740601782192
N -2.1783591106107698 -0.4514617785781988 0.7555602474773091 0.0587798760355904
N -1.8570448719738377 -0.4335332981047655 -0.0387471901010282 0.2214211643831836
O -1.6334430458865548 -0.5824962034542597 0.3346224286306203 -0.4685750352723741
N -2.4783789738211075 -0.3256835461118037 -0.8832928358637945 0.2496200493825114
