12
s                      x[A]                      y[A]                      z[A]                      q[e]
O        0.3654995421702907        0.2290350543272265        0.0865630320401772       -0.8072993266879445
N        0.3775564314073158        0.2730376629216565       -0.1066292470747507        0.9069336736350270
N        0.2277637845002540        0.1950523724450932        0.3954073279667713        0.3406022431233925
O        1.1773523550523688        0.3961751830016099       -0.0660822011366757       -0.3462180297904025
O        1.0711162545566555       -0.3873119967036985       -0.0423333336741693       -0.2051458815534636
N       -0.3783048793275302        1.5839133474665665        0.0509608752664766        0.1072793153246558
N       -0.6492932762817238       -1.4258820464832891        0.0490166399618886        0.4457076997089998
N       -0.5834968784007334       -0.9446112227690244       -0.0002693948332639        0.4687125452984249
O       -0.7146175792616404       -1.1211482765214864        0.0645281277941163       -0.5487290390896334
N       -1.2071287636758494       -0.9098656772979344        0.0069446477114566        0.3539744947731015
N       -1.0485681179381434        0.0701330120771181       -0.0124198375726333        0.2317602394451832
O       -1.1386720409256712       -0.4837624247506408       -0.0109217612348438       -0.9475779341873407

        RMSE         2.524269068E-01 kcal/mol
         MAE         1.499978085E-01 kcal/mol
     max. AE         2.037004690E+00 kcal/mol

Coordinates in bohr
s                   x[bohr]                   y[bohr]                   z[bohr]                      q[e]
-        0.6906940336820735        0.4328135258078128        0.1635804231451659       -0.8072993266879445
+        0.7134782522650310        0.5159664048570025       -0.2015000739350540        0.9069336736350270
+        0.4304111740032767        0.3685955640420233        0.7472115578562795        0.3406022431233925
-        2.2248735042117622        0.7486625935761783       -0.1248772619157351       -0.3462180297904025
-        2.0241163696382491       -0.7319135988742154       -0.0799984066218013       -0.2051458815534636
+       -0.7148926138534049        2.9931624331689335        0.0963020973672586        0.1072793153246558
+       -1.2269864672736812       -2.6945265550607447        0.0926280251181411        0.4457076997089998
+       -1.1026492952369553       -1.7850565060672898       -0.0005090824544821        0.4687125452984249
-       -1.3504315092421522       -2.1186631886546703        0.1219404889194230       -0.5487290390896334
+       -2.2811427615098614       -1.7193969410472882        0.0131234822124404        0.3539744947731015
+       -1.9815065667898546        0.1325321851791795       -0.0234700915349480        0.2317602394451832
-       -2.1517783040656262       -0.9141784925661126       -0.0206391375414968       -0.9475779341873407
