6
s                      x[A]                      y[A]                      z[A]                      q[e]
O       -0.4885572525502702       -0.0000100434866775        0.2498226544410821       -0.2822158592578413
O        0.4490833936174006       -0.0000117616668103        0.3509134604991229       -0.3116384743180583
N       -0.0000101046553958        1.0441175439577832       -0.2591001005582620        0.1966302669268139
N       -0.0000022076583830        0.7861473195902627       -0.8676959977127742        0.0901736565411548
N       -0.0000028012916130       -1.0753116145420787       -0.2934085010351059        0.0649113763663102
N       -0.0000284310959546       -0.8431072181864577       -0.4874677098837294        0.2421390337416208

        RMSE         7.123398799E-01 kcal/mol
         MAE         5.036403508E-01 kcal/mol
     max. AE         4.374900814E+00 kcal/mol

Coordinates in bohr
s                   x[bohr]                   y[bohr]                   z[bohr]                      q[e]
-       -0.9232394039261437       -0.0000189794391651        0.4720963968285359       -0.2822158592578413
-        0.8486446214280633       -0.0000222263290503        0.6631303340800061       -0.3116384743180583
+       -0.0000190950312902        1.9730962008658852       -0.4896282291336981        0.1966302669268139
+       -0.0000041718697223        1.4856031282883642       -1.6397077958330253        0.0901736565411548
+       -0.0000052936739460       -2.0320444510084039       -0.5544617098374598        0.0649113763663102
+       -0.0000537269848008       -1.5932417367690226       -0.9211804666843806        0.2421390337416208
