24
s                      x[A]                      y[A]                      z[A]                      q[e]
N -0.35991616846702357 0.20453168308910108 -0.08108366644262333 0.4396498698493788 
N -0.2564232898246388 0.41599976760636537 -0.054277381956694626 -0.2419484626586362 
N -0.16597007419022702 -0.17389002171034917 -0.16625394137716398 -0.8216640823832928 
N -0.13363884676937232 -0.1864417189320875 0.007219462978710567 0.6911058725627753 
N -0.09658491381605927 0.1706950629226185 -0.01434735899144357 0.3472770842538423 
N -0.07274944535674877 0.25091908251692985 0.2664152084220177 -0.4972452564803699 
N -0.0932208196043689 0.0358400220711701 0.2923479760453278 0.0348746148872408 
N -0.22711293867007498 0.20941756446023874 0.4373094867825671 0.4472873175241169 
N 0.12344600559215735 -0.10705507639585221 -0.5415922032321987 0.4040279392599954 
N 0.252252253267498 0.0802402762053589 0.0738884572838856 -0.764891438135215 
N -0.2602204439357436 0.03718604680383919 -0.07070690621813469 -0.5803786163151374 
N 0.08566234880407819 0.11082788052317483 0.24320309995943035 0.6104678734781928 
N -0.5043999791213309 0.003253027218704574 -0.08911150320858496 0.4283178126312049 
N 0.030440620466521295 0.41332817328839155 0.032035349402406155 -0.516673231881224 
N 0.07816480856195085 -0.18683900057841996 0.039674097016856535 -0.9898710280040961 
N 0.42590079245577783 0.016352549638611436 -0.0011784850177605222 0.5250946986775089 
N -0.04152968152078529 0.0455184653423828 0.10781923690956319 0.2762007947019022 
N -0.12362867555987123 -0.274021678630163 -0.4419256995699925 0.6761625577758107 
N -0.15663448681516456 -0.1145132169272216 0.48245037806998425 0.4633336859053099 
N -0.027787789742006908 -0.2864648127467717 -0.11374702794728364 -0.9923740601782192 
N -0.1531707582674926 0.08048065724969433 0.26149294396680034 0.0587798760355904 
N -0.04142609682804732 0.06755900795812408 0.0818860804815813 0.2214211643831836 
N -0.022644248571992875 0.07400043369945308 -0.37767713192999963 -0.4685750352723741 
N 0.13931942207034353 -0.07308177731181331 0.027650083118203383 0.2496200493825114 
