36
s                      x[A]                      y[A]                      z[A]                      q[e]
O        2.0215794282443658        1.1674402599545477       -0.1277254666295016       -0.4014710679214596
N        1.9993475662314801        0.8507985477150417       -0.1393691901678911        0.5332599846961354
N        2.0272358450409333        1.3650147026433230       -0.2944143010129422        0.2084001360918347
O        1.7994897545654116        0.2028633370159307       -0.1431487656728850       -0.8992691329266410
N        1.8434071336433204       -0.2618944239017463       -0.1380394813789105        0.9983635750790354
N        3.2660795982626141       -0.5441568550311306        0.0561245705123801        0.0832624916780003
N        1.4552415744820342        0.1709546876428888       -0.1159357654138709        0.3629795677800511
O        1.8022168546300246       -0.3757366407772126       -0.3381468887511491       -0.4833930602413689
O        1.7357876100318779       -0.1532764284936838        0.1752220314738286       -0.4066304084307125
O        1.1606342546438262       -0.3344455146165643        0.4244381404347271       -0.5840721698580968
O        1.0145275337199615       -0.4948334272145766       -0.2246169949616687       -0.7051522594866387
N        1.2199332535615488       -0.8417882766771093        0.2982449462867404        0.6682853393605772
N        0.9018693499593223       -0.3176433713877906        0.0059612241785998        0.8602906266120544
N        0.6549272064233570       -1.3492228771149610        0.1935177340158266        0.8992307705491640
O        0.6971640234317752       -1.4068539111799425        0.1827970981750972       -0.8503059764897692
N        0.8821284963403000       -1.5481568784339446        0.4197067229804389        0.7415588081635470
O        0.9059672546458840       -1.3312802440280662        0.4136332240385811       -0.9935860636128719
N       -1.1126238144916267       -0.6001654523257076       -0.0568391764297166        0.8285555447729608
O       -1.3993431150571582       -0.8408707701075828       -0.1725962419682981       -0.4052120601281547
N       -1.8041353380950549       -1.2414100032439097       -0.1347175940872338        0.2379040248645905
O       -1.4406910328079341       -0.8872851856963225       -0.0644569820555754       -0.9788759613466715
O       -0.5992618008746061        0.2343256545041995       -0.2064808710722666       -0.6996131543363323
O       -0.3801856164324224        0.3754450651870910        0.3116543121026550       -0.9488961137673336
N       -0.1808182577376678        0.3285635135452382        0.1853061714486636        0.9967034953194256
N       -0.9063005567229475       -0.0479977338982448       -0.0654414416446737        0.9955760074513786
N       -1.2499134267086562        0.9334591634853788        0.0195241434251579        0.3700659772580641
N       -0.8757329810865333        1.1665759485671923       -0.0511197113568862        0.2549209600349680
O       -1.5329715807276161        1.4489079230739241       -0.0135803172335343       -0.3222814933197704
N       -2.0186934043080660        1.6385952389834262       -0.0624484226570731        0.2123572864998332
O       -0.8398188084322764        0.8809273356284194       -0.1613217235959647       -0.4362607528574728
N       -0.9369866272968920        1.6769766109733970        0.0670043811536772        0.2640432055741132
O       -0.8451191266824447        0.9361725117228896        0.3232883674733068       -0.4019064276245513
O       -0.5530707174358848        1.3739080374365682       -0.0006171243675219       -0.6482120708217086
N       -0.0563021631840589        2.1802202338182424        0.2745930910570594        0.2109934169784858
N       -0.3676788542964724        1.1536467590212669        0.1464147006427058        0.5883482408867000
O       -0.2864908295177372        1.9116415358922858        0.4018190172862825       -0.1499612864813646

        RMSE         4.268098396E-01 kcal/mol
         MAE         2.523832452E-01 kcal/mol
     max. AE         3.873273361E+00 kcal/mol

Coordinates in bohr
s                   x[bohr]                   y[bohr]                   z[bohr]                      q[e]
-        3.8202314602414766        2.2061423591473872       -0.2413661511760611       -0.4014710679214596
+        3.7782193297781532        1.6077762431186928       -0.2633695997441640        0.5332599846961354
+        3.8309205388384289        2.5795039452191362       -0.5563623963325620        0.2084001360918347
-        3.4005428016959534        0.3833561478565602       -0.2705119623190914       -0.8992691329266410
+        3.4835346203011128       -0.4949087349588571       -0.2608568143063766        0.9983635750790354
+        6.1719959446616697       -1.0283074252992956        0.1060600671773448        0.0832624916780003
+        2.7500080221510839        0.3230575395082496       -0.2190868447775420        0.3629795677800511
-        3.4056962739347902       -0.7100393463684618       -0.6390050099153282       -0.4833930602413689
-        3.2801631949232442       -0.2896504713413830        0.3311216506318877       -0.4066304084307125
-        2.1932808731017119       -0.6320104265131095        0.8020718426202424       -0.5840721698580968
-        1.9171791854669091       -0.9350996551572200       -0.4244646036008948       -0.7051522594866387
+        2.3053397405700280       -1.5907492985408560        0.5636012667838199        0.6682853393605772
+        1.7042860723678004       -0.6002589774900116        0.0112650810700109        0.8602906266120544
+        1.2376330522513297       -2.5496617199495186        0.3656955177091066        0.8992307705491640
-        1.3174490688083191       -2.6585685906592644        0.3454364520793606       -0.8503059764897692
+        1.6669812655450951       -2.9255924994838640        0.7931307594464269        0.7415588081635470
-        1.7120299899136320       -2.5157550574457095        0.7816535098230577       -0.9935860636128719
+       -2.1025542900513710       -1.1341483348571044       -0.1074104766487422        0.8285555447729608
-       -2.6443752430030516       -1.5890154624061426       -0.3261596276033337       -0.4052120601281547
+       -3.4093216822599168       -2.3459249155347033       -0.2545793571054688        0.2379040248645905
-       -2.7225114834099742       -1.6767259961420411       -0.1218060429585873       -0.9788759613466715
-       -1.1324406811016499        0.4428113111815906       -0.3901922964725517       -0.6996131543363323
-       -0.7184466918956376        0.7094883483582632        0.5889412956919751       -0.9488961137673336
+       -0.3416969856066380        0.6208950554186535        0.3501779133951070        0.9967034953194256
+       -1.7126598395563282       -0.0907025717102859       -0.1236664019635638        0.9955760074513786
+       -2.3619940570118660        1.7639821682863304        0.0368952839077065        0.3700659772580641
+       -1.6548954932842881        2.2045090473381710       -0.0966022540769712        0.2549209600349680
-       -2.8968964456853601        2.7380391556156356       -0.0256630802682150       -0.3222814933197704
+       -3.8147776654103542        3.0964962321577940       -0.1180104157887036        0.2123572864998332
-       -1.5870275429453358        1.6647114007669808       -0.3048538756831811       -0.4362607528574728
+       -1.7706481088075539        3.1690265135381570        0.1266199295862380        0.2640432055741132
-       -1.5970436928159197        1.7691096533382193        0.6109264740709186       -0.4019064276245513
-       -1.0451521839642959        2.5963099123203746       -0.0011661960399627       -0.6482120708217086
+       -0.1063956686887060        4.1200191350981070        0.5189057380407454        0.2109934169784858
+       -0.6948123367424461        2.1800764200722393        0.2766836849556082        0.5883482408867000
-       -0.5413892052437528        3.6124789528859811        0.7593278946716787       -0.1499612864813646
