25
s                      x[A]                      y[A]                      z[A]                      q[e]
N 1.7044414529281462 1.5013981582792666 0.2244526739864530 0.1158659338886357
O 1.8197935367913740 -0.0782872264362126 -0.4267817535240711 -0.2341991647481463
N 3.3627393157655923 -0.2400659953401041 -0.0118832973501186 0.0569852111266852
N 2.1617449239493154 -0.2966168661771441 0.0206193183178756 0.3189271149812888
O 1.8878494783525817 -0.2114428397482936 0.3418213951898356 -0.2877498234141676
N 1.4264272354262120 -0.8509570548364012 0.0303322209828314 0.5692545008206258
O 0.9108165975172706 -0.4117262924862281 -0.5278889650423126 -0.2058946535748549
O 1.1920469936486136 -0.6728843530479974 0.1070363996949840 -0.9992971180892700
N 0.7247777571472406 -0.3954561238308907 -0.0424936960705336 0.6691943173322236
N 1.1029295381416886 -2.0897468533306176 -0.2117305376039634 0.0628076875181509
N -0.7776655216076893 1.4285153034261702 0.0426583183264932 0.7576134719858190
O -0.6991745034133621 1.0883909179211821 -0.0580989823190117 -0.9235083265987739
N -0.7224907140117451 0.6483830208347057 -0.0258191968853236 0.9955526175656415
O -0.7629609245153559 1.2259046777647846 0.0755439221274171 -0.9936641819349231
O -0.4217528400914107 -0.3824202086916729 0.0402756737776681 -0.9934394819660318
N -0.4902606910231581 0.0435906311069951 -0.1003441131403279 0.8475065253219278
N -0.3376835606877292 -0.6459004903311183 -0.0715620432383731 0.9207393412409772
O -0.5747251695443766 -0.4827475619421530 -0.3541770180920203 -0.6738758902636315
N -2.8289328633395647 -0.2382589990507703 -0.0316721741746983 0.1207489421105395
N -0.9849384585811922 -0.9813706618037510 -0.2423827544903882 0.4308753055723465
O -1.3089755832439156 -0.7855296969451621 0.0387797176560061 -0.7095764258838037
N -1.5260895078529990 -0.3056015541974034 -0.0810965084048373 0.9977500474782615
O -1.4630574608325699 -0.3827221528455976 -0.2996689463298939 -0.9963537733476465
O -1.4634108059307604 -2.2887390466625330 0.0661577142947252 -0.1586318904925156
N -1.5736932806341479 -1.7533470058757394 -0.8502954001011237 0.3123697133706422
