25
s                      x[A]                      y[A]                      z[A]                      q[e]
N -1.6979447811289721 0.9140421380556528 -1.2145592284956199 0.1158659338886357
O -1.8027714534435704 0.1668177575695183 0.2973950975587921 -0.2341991647481463
N -3.3323931697257558 -0.3915451980248692 -0.0175474157277118 0.0569852111266852
N -2.0897823704730643 -0.3325526890272136 -0.0055875872931667 0.3189271149812888
O -1.8192680170273148 -0.4601396868704460 -0.2065057662137405 -0.2877498234141676
N -1.3518230090953411 -0.5620660534212846 0.3408196608496460 0.5692545008206258
O -0.8115089972624709 -0.2222676002274697 0.7307672128523348 -0.2058946535748549
O -1.1202432523427479 -0.4336567364494646 0.1482790327436125 -0.9992971180892700
N -0.6685948494767620 -0.2399469655390409 0.2409118130489256 0.6691943173322236
N -0.9983702503050910 -1.6332428037549802 1.3298307325703127 0.0628076875181509
N 0.6212073644126961 1.3867153062339936 0.0927548895654921 0.7576134719858190
O 0.5944418892038574 1.1425297892178290 0.1370380006708762 -0.9235083265987739
N 0.5886183092970986 0.7471941712037896 0.0783162707392034 0.9955526175656415
O 0.6336582890930879 1.2467772589423158 0.0668169704465258 -0.9936641819349231
O 0.3907153868576314 -0.1434788504112584 0.0065265307040738 -0.9934394819660318
N 0.4610696898892452 0.2136357187979828 0.1026124094956269 0.8475065253219278
N 0.3374387031121687 -0.3806380140405480 0.0889935876940923 0.9207393412409772
O 0.6228505826287768 -0.2722862903352727 0.2049672856488220 -0.6738758902636315
N 2.7469655787550842 -0.3689288697500754 -0.4654786895791781 0.1207489421105395
N 0.9817258093738915 -0.7608728673729200 0.0221259566789415 0.4308753055723465
O 1.1990008675261432 -0.5549314198777062 -0.2501844206214610 -0.7095764258838037
N 1.3753874995550530 -0.3753689675324868 -0.1315074277117653 0.9977500474782615
O 1.3275567623109272 -0.5775304278703131 -0.0238177522251351 -0.9963537733476465
O 1.4237186173912113 -1.9454748626278422 -0.4851921437785379 -0.1586318904925156
N 1.4220222970663439 -1.9749772560531862 -0.3856463016859986 0.3123697133706422
