25
s                      x[A]                      y[A]                      z[A]                      q[e]
N -1.6598178598298039 0.1586204748776945 -1.6116325973075312 0.1158659338886357
O -1.7487660555689348 0.4006811368308956 0.0477131456054241 -0.2341991647481463
N -3.3736543092543814 -0.1044781830129798 0.0589234238875864 0.0569852111266852
N -2.1224429752785325 -0.1176234210370069 0.0570639874117783 0.3189271149812888
O -1.8637981867119295 -0.4096057054399912 -0.0041434353852481 -0.2877498234141676
N -1.3763946962133164 -0.1562267383867327 0.5034101737565887 0.5692545008206258
O -0.7772505933001417 0.0859798239901806 0.8003054365843253 -0.2058946535748549
O -1.1429108025059733 -0.1105163878743752 0.2734027479018836 -0.9992971180892700
N -0.6654378822177796 0.0036083592450016 0.3151236416623676 0.6691943173322236
N -1.1125657130420519 -0.5246413553015603 1.9582253549601298 0.0628076875181509
N 0.7955737926589944 1.3036814062319830 -0.0343648263959613 0.7576134719858190
O 0.7417208977005559 1.0984422327736234 0.0205949752885404 -0.9235083265987739
N 0.6579368188048093 0.7084531114856052 0.0017064977073611 0.9955526175656415
O 0.7885164726612842 1.1789898393640470 -0.0470715721899781 -0.9936641819349231
O 0.3470453021644798 -0.0994772158541005 0.0095479993683247 -0.9934394819660318
N 0.4643825465351809 0.2264941319076416 0.0452615532339946 0.8475065253219278
N 0.2637562774625326 -0.3066015120441771 0.1123858967533546 0.9207393412409772
O 0.5630535266186696 -0.2432900487643674 0.1914349287431227 -0.6738758902636315
N 2.6451623320255870 -0.7657878899223401 -0.4569423874023132 0.1207489421105395
N 0.8339477963206143 -0.7978201273133381 0.0869814516551277 0.4308753055723465
O 1.0747769768843161 -0.6728148613679678 -0.1906107216953185 -0.7095764258838037
N 1.2617526464540028 -0.4995385164811227 -0.1061995887963976 0.9977500474782615
O 1.1881199273401424 -0.6863360978351418 0.0138991837272414 -0.9963537733476465
O 1.0949563925544210 -2.0778224581492841 -0.2565305860151817 -0.1586318904925156
N 1.0893500101859219 -2.1138337902267423 -0.1635937420718309 0.3123697133706422
