25
s                      x[A]                      y[A]                      z[A]                      q[e]
N -1.8303799145150852 1.2427652633850719 -0.9686752046972595 0.1158659338886357
O -1.8490856000829325 0.1747660471077788 0.3734708214976875 -0.2341991647481463
N -3.3751224705281375 -0.2280454880104970 0.1174483664293526 0.0569852111266852
N -2.1662595598739727 -0.2483781722258920 0.0817244406650567 0.3189271149812888
O -1.8919406530428224 -0.3021808362595689 -0.2461241649767853 -0.2877498234141676
N -1.3643681333912856 -0.4348344816112010 0.7664543039274869 0.5692545008206258
O -0.9359953034723064 -0.4639036776681823 0.0022746837890653 -0.2058946535748549
O -1.0644545420112537 -0.4724075654519044 0.7322838932468441 -0.9992971180892700
N -0.6082895289893120 -0.4419514894334590 0.4055249317204118 0.6691943173322236
N -0.9827862612876452 -1.6441541909828086 1.1162214762193368 0.0628076875181509
N 1.5082117291154071 -1.2823598570426598 -0.2091171453453242 0.7576134719858190
O 1.2658899742553014 -1.0117552418958955 -0.2162431939339302 -0.9235083265987739
N 1.1019220497198934 -0.6342970509651398 -0.0929561544963612 0.9955526175656415
O 1.4151344946282245 -1.1169326537069393 -0.1296236074907444 -0.9936641819349231
O 0.4178284160629334 0.1208037939089676 0.2571893807975695 -0.9934394819660318
N 0.6202050017980147 -0.1970840844866567 0.0043188604646219 0.8475065253219278
N 0.2025022219365103 0.3257046804342331 0.2317446500305488 0.9207393412409772
O 0.3994719737959474 0.3362098228837431 -0.1200669262674998 -0.6738758902636315
N 2.2542419173359152 1.4709271053981978 -0.4162344515308908 0.1207489421105395
N 0.5695107133295950 0.9461008556777837 0.0391182847942420 0.4308753055723465
O 1.0090909653174629 0.8893711592884576 0.2002301125095210 -0.7095764258838037
N 1.1756631345530231 0.8250153236989546 -0.0687448738405367 0.9977500474782615
O 0.9896051729435185 0.9559080460608027 -0.1458426459378184 -0.9963537733476465
O 0.5091071920955229 2.2610548287835055 0.5828079231107881 -0.1586318904925156
N 0.4792604871059445 2.2287150308754078 0.4134290500078092 0.3123697133706422
