8
s                      x[A]                      y[A]                      z[A]                      q[e]
O        0.0000010508956235        0.0001099961714895        0.0277407456572774       -0.5468598006666675
O        0.0000042535878526        0.0001168442214059       -0.1121094951886629       -0.5707159585744830
O        0.0000551330644221        0.0001212065873684       -0.1255192626269133       -0.1805916799286149
N        0.0000016333692556        0.4762383894293314       -0.2140737552996062        0.1441687228831192
N        0.0000086851138390        0.6635929700945736       -0.4228625080122869        0.5431663482566568
O        0.0000128488603766       -0.9669306758555397       -0.2003160881260604       -0.9999987722962903
N        0.0000064062883867       -0.7311543984088528       -0.4734196947457587        0.6621539619516819
N       -0.0000122878630847       -0.9609387463119710       -0.1418541396614728        0.9486771783745978

        RMSE         3.998202739E-01 kcal/mol
         MAE         2.590185694E-01 kcal/mol
     max. AE         3.334005943E+00 kcal/mol

Coordinates in bohr
s                   x[bohr]                   y[bohr]                   z[bohr]                      q[e]
-        0.0000019859049149        0.0002078626389640        0.0524224118082379       -0.5468598006666675
-        0.0000080381160920        0.0002208035777995       -0.2118562419699049       -0.5707159585744830
-        0.0001041863922150        0.0002290472547277       -0.2371970298342805       -0.1805916799286149
+        0.0000030866205548        0.8999601264505667       -0.4045407681645320        0.1441687228831192
+        0.0000164124865241        1.2540089722578711       -0.7990943288674388        0.5431663482566568
-        0.0000242808271360       -1.8272341596708082       -0.3785425450813291       -0.9999987722962903
+        0.0000121061305315       -1.3816815684166106       -0.8946335654673304        0.6621539619516819
+       -0.0000232206958972       -1.8159110538704237       -0.2680654737226286        0.9486771783745978
